Circuit: * C:\Program Files\LTC\LTspiceIV\examples\Educational\contrib\elip_grd.asc

WARNING: Node N016 is floating.
WARNING: Node N015 is floating.
WARNING: Node N014 is floating.

WARNING: Less than two connections to node S11.  This node is used by E.

Date: Sat Apr 22 21:51:15 2017
Total elapsed time: 0.031 seconds.

tnom = 27
temp = 27
method = trap
totiter = 0
traniter = 0
tranpoints = 0
accept = 0
rejected = 0
matrix size = 22
fillins = 17
solver = Normal

