Questionable use of curly braces in ".model sir870adp vdmos(rg=3 vto=2.9 rd=3.2m rs=1.5m rb={m} kp=100 mtriode=1.85 cgdmax=1.4n cgdmin=70p cgs=2.9n cjo=3.6n m=.4 a=.7 vj=.7 lambda=20m is=3p ksubthres=.08 mfg=siliconix vds=100 ron=5.5m qg=53.5n)"
    Error: undefined symbol in: "[m]"
Circuit: * C:\Program Files\LTC\LTspiceIV\2x5Wse tube amp.asc

Warning: Multiple definitions of model "irf740" Type: Mos3
.OP point found by inspection.
N-Period=1
Fourier components of V(a)
DC component:131.907

Harmonic	Frequency	 Fourier 	Normalized	 Phase  	Normalized
 Number 	  [Hz]   	Component	 Component	[degree]	Phase [deg]
    1   	1.000e+03	5.100e-06	1.000e+00	   43.00°	    0.00°
    2   	2.000e+03	2.072e-06	4.062e-01	   20.06°	  -22.95°
    3   	3.000e+03	1.390e-06	2.726e-01	    9.77°	  -33.24°
    4   	4.000e+03	1.086e-06	2.129e-01	    5.47°	  -37.53°
    5   	5.000e+03	8.988e-07	1.762e-01	    4.20°	  -38.80°
    6   	6.000e+03	7.616e-07	1.493e-01	    4.33°	  -38.67°
    7   	7.000e+03	6.524e-07	1.279e-01	    4.82°	  -38.18°
    8   	8.000e+03	5.637e-07	1.105e-01	    5.05°	  -37.95°
    9   	9.000e+03	4.928e-07	9.663e-02	    4.72°	  -38.28°
Total Harmonic Distortion: 61.310423%(67.482118%)


N-Period=1
Fourier components of V(b)
DC component:2.02218e-007

Harmonic	Frequency	 Fourier 	Normalized	 Phase  	Normalized
 Number 	  [Hz]   	Component	 Component	[degree]	Phase [deg]
    1   	1.000e+03	1.236e-08	1.000e+00	   -7.93°	    0.00°
    2   	2.000e+03	6.129e-09	4.959e-01	   -3.87°	    4.06°
    3   	3.000e+03	4.075e-09	3.297e-01	   -2.48°	    5.45°
    4   	4.000e+03	3.051e-09	2.469e-01	   -1.79°	    6.14°
    5   	5.000e+03	2.437e-09	1.972e-01	   -1.40°	    6.53°
    6   	6.000e+03	2.029e-09	1.642e-01	   -1.17°	    6.76°
    7   	7.000e+03	1.738e-09	1.407e-01	   -1.02°	    6.91°
    8   	8.000e+03	1.521e-09	1.231e-01	   -0.91°	    7.02°
    9   	9.000e+03	1.352e-09	1.094e-01	   -0.83°	    7.10°
Total Harmonic Distortion: 72.686368%(79.392417%)


N-Period=1
Fourier components of V(ulaz)
DC component:4.68473e-007

Harmonic	Frequency	 Fourier 	Normalized	 Phase  	Normalized
 Number 	  [Hz]   	Component	 Component	[degree]	Phase [deg]
    1   	1.000e+03	3.467e-29	1.000e+00	 -135.86°	    0.00°
    2   	2.000e+03	4.313e-29	1.244e+00	  -30.42°	  105.45°
    3   	3.000e+03	1.213e-28	3.499e+00	  -54.99°	   80.88°
    4   	4.000e+03	1.545e-28	4.456e+00	   29.24°	  165.11°
    5   	5.000e+03	2.234e-28	6.446e+00	   14.73°	  150.59°
    6   	6.000e+03	2.826e-28	8.151e+00	   89.71°	  225.57°
    7   	7.000e+03	2.878e-28	8.303e+00	   76.81°	  212.67°
    8   	8.000e+03	3.593e-28	1.037e+01	  153.46°	  289.32°
    9   	9.000e+03	2.440e-28	7.039e+00	  132.83°	  268.69°
Total Harmonic Distortion: 1917.174300%(58960837662.716599%)


N-Period=1
Fourier components of V(n003)
DC component:120.231

Harmonic	Frequency	 Fourier 	Normalized	 Phase  	Normalized
 Number 	  [Hz]   	Component	 Component	[degree]	Phase [deg]
    1   	1.000e+03	2.245e-06	1.000e+00	   18.29°	    0.00°
    2   	2.000e+03	1.562e-06	6.957e-01	  -20.27°	  -38.56°
    3   	3.000e+03	1.451e-06	6.462e-01	  -23.54°	  -41.84°
    4   	4.000e+03	1.321e-06	5.884e-01	  -18.70°	  -37.00°
    5   	5.000e+03	1.167e-06	5.198e-01	  -11.65°	  -29.94°
    6   	6.000e+03	1.000e-06	4.455e-01	   -4.45°	  -22.74°
    7   	7.000e+03	8.344e-07	3.716e-01	    1.70°	  -16.60°
    8   	8.000e+03	6.828e-07	3.041e-01	    5.75°	  -12.55°
    9   	9.000e+03	5.583e-07	2.487e-01	    6.88°	  -11.41°
Total Harmonic Distortion: 141.735281%(157.230553%)


N-Period=1
Fourier components of V(prvi_stepen)
DC component:43.2624

Harmonic	Frequency	 Fourier 	Normalized	 Phase  	Normalized
 Number 	  [Hz]   	Component	 Component	[degree]	Phase [deg]
    1   	1.000e+03	2.982e-21	1.000e+00	 -135.86°	    0.00°
    2   	2.000e+03	3.710e-21	1.244e+00	  -30.42°	  105.45°
    3   	3.000e+03	1.043e-20	3.499e+00	  -54.99°	   80.88°
    4   	4.000e+03	1.329e-20	4.456e+00	   29.24°	  165.11°
    5   	5.000e+03	1.922e-20	6.446e+00	   14.73°	  150.59°
    6   	6.000e+03	2.431e-20	8.151e+00	   89.71°	  225.57°
    7   	7.000e+03	2.476e-20	8.303e+00	   76.81°	  212.67°
    8   	8.000e+03	3.091e-20	1.037e+01	  153.46°	  289.32°
    9   	9.000e+03	2.099e-20	7.039e+00	  132.83°	  268.69°
Total Harmonic Distortion: 1917.173973%(58960827571.958961%)



Date: Sat Dec 16 00:47:53 2017
Total elapsed time: 56.784 seconds.

tnom = 27
temp = 27
method = modified trap
totiter = 835256
traniter = 835256
tranpoints = 402756
accept = 244927
rejected = 157829
matrix size = 73
fillins = 56
solver = Alternate
Thread vector: 128.2/108.4[2] 18.8/12.9[2] 16.9/12.0[2] 5.0/4.3[2]  2592/500
Matrix Compiler1: 11.15 KB object code size  12.6/9.7/[6.3]
Matrix Compiler2: 8.05 KB object code size  6.2/7.6/[4.6]


