Circuit: * C:\Program Files\LTC\LTspiceIV\Draft2.asc

Direct Newton iteration for .op point succeeded.

Date: Sat Sep 17 16:25:48 2016
Total elapsed time: 0.031 seconds.

tnom = 27
temp = 27
method = modified trap
totiter = 2397
traniter = 2394
tranpoints = 1198
accept = 1113
rejected = 85
matrix size = 2
fillins = 0
solver = Normal
Matrix Compiler1: 54 bytes object code size  1.4/1.4/[1.4]
Matrix Compiler2: 116 bytes object code size  1.3/1.3/[1.3]


