Circuit: * C:\Program Files\LTC\LTspiceIV\Izlazna impedansa cevi.asc

Direct Newton iteration for .op point succeeded.
.step x=3000
.step x=3250
.step x=3500
.step x=3750
.step x=4000
.step x=4250
.step x=4500
.step x=4750
.step x=5000
.step x=5250
.step x=5500
.step x=5750
.step x=6000

Date: Thu Apr 27 21:46:07 2017
Total elapsed time: 0.405 seconds.

tnom = 27
temp = 27
method = trap
totiter = 7
traniter = 0
tranpoints = 0
accept = 0
rejected = 0
matrix size = 11
fillins = 2
solver = Normal
Matrix Compiler1:      47 opcodes
Matrix Compiler2: 889 bytes object code size

