Questionable use of curly braces in ".model sir870adp vdmos(rg=3 vto=2.9 rd=3.2m rs=1.5m rb={m} kp=100 mtriode=1.85 cgdmax=1.4n cgdmin=70p cgs=2.9n cjo=3.6n m=.4 a=.7 vj=.7 lambda=20m is=3p ksubthres=.08 mfg=siliconix vds=100 ron=5.5m qg=53.5n)"
    Error: undefined symbol in: "[m]"
Circuit: * C:\Program Files\LTC\LTspiceIV\Napajanje_tranzistor.asc

.OP point found by inspection.

Date: Thu Jan 11 00:04:47 2018
Total elapsed time: 9.048 seconds.

tnom = 27
temp = 27
method = modified trap
totiter = 180470
traniter = 180470
tranpoints = 36737
accept = 26173
rejected = 10564
matrix size = 40
fillins = 32
solver = Alternate
Matrix Compiler1: 6.04 KB object code size  8.3/6.1/[3.8]
Matrix Compiler2: 4.43 KB object code size  4.0/5.2/[2.9]


