Circuit: * C:\Program Files\LTC\LTspiceIV\paraprase.asc

Direct Newton iteration for .op point succeeded.
N-Period=1
Fourier components of V(ulaz)
DC component:0.000251724

Harmonic	Frequency	 Fourier 	Normalized	 Phase  	Normalized
 Number 	  [Hz]   	Component	 Component	[degree]	Phase [deg]
    1   	1.000e+03	9.751e-01	1.000e+00	    0.30°	    0.00°
    2   	2.000e+03	1.416e-03	1.452e-03	  -16.68°	  -16.98°
    3   	3.000e+03	2.184e-02	2.240e-02	 -168.01°	 -168.31°
    4   	4.000e+03	1.203e-03	1.234e-03	  -59.58°	  -59.88°
    5   	5.000e+03	5.174e-04	5.306e-04	   48.97°	   48.67°
    6   	6.000e+03	2.009e-04	2.060e-04	  -92.39°	  -92.69°
    7   	7.000e+03	8.668e-04	8.889e-04	   -7.66°	   -7.97°
    8   	8.000e+03	3.084e-05	3.163e-05	   -2.98°	   -3.28°
    9   	9.000e+03	1.714e-03	1.758e-03	  -65.61°	  -65.91°
Total Harmonic Distortion: 2.257516%(2.279495%)


N-Period=1
Fourier components of V(izlaz1)
DC component:-0.00541149

Harmonic	Frequency	 Fourier 	Normalized	 Phase  	Normalized
 Number 	  [Hz]   	Component	 Component	[degree]	Phase [deg]
    1   	1.000e+03	1.102e+01	1.000e+00	 -179.69°	    0.00°
    2   	2.000e+03	7.937e-02	7.205e-03	  101.86°	  281.55°
    3   	3.000e+03	2.445e-01	2.219e-02	   12.26°	  191.95°
    4   	4.000e+03	1.016e-02	9.218e-04	  133.32°	  313.01°
    5   	5.000e+03	6.756e-03	6.133e-04	 -141.25°	   38.44°
    6   	6.000e+03	4.634e-03	4.206e-04	  110.35°	  290.04°
    7   	7.000e+03	1.148e-02	1.042e-03	  172.66°	  352.35°
    8   	8.000e+03	1.774e-03	1.611e-04	  170.40°	  350.09°
    9   	9.000e+03	2.017e-02	1.831e-03	  116.99°	  296.67°
Total Harmonic Distortion: 2.345813%(2.367481%)


N-Period=1
Fourier components of V(izlaz2)
DC component:0.0053716

Harmonic	Frequency	 Fourier 	Normalized	 Phase  	Normalized
 Number 	  [Hz]   	Component	 Component	[degree]	Phase [deg]
    1   	1.000e+03	1.102e+01	1.000e+00	    0.19°	    0.00°
    2   	2.000e+03	7.932e-02	7.200e-03	  -78.42°	  -78.61°
    3   	3.000e+03	2.444e-01	2.219e-02	 -167.82°	 -168.00°
    4   	4.000e+03	1.022e-02	9.279e-04	  -46.11°	  -46.30°
    5   	5.000e+03	6.735e-03	6.113e-04	   37.40°	   37.22°
    6   	6.000e+03	4.656e-03	4.226e-04	  -68.47°	  -68.66°
    7   	7.000e+03	1.155e-02	1.048e-03	   -7.58°	   -7.77°
    8   	8.000e+03	1.851e-03	1.680e-04	   -8.87°	   -9.06°
    9   	9.000e+03	2.022e-02	1.836e-03	  -62.76°	  -62.95°
Total Harmonic Distortion: 2.345471%(2.367234%)



Date: Sat Apr 22 00:32:29 2017
Total elapsed time: 11.145 seconds.

tnom = 27
temp = 27
method = modified trap
totiter = 850049
traniter = 850039
tranpoints = 380019
accept = 240021
rejected = 139998
matrix size = 17
fillins = 4
solver = Normal
Matrix Compiler1: 1.57 KB object code size  2.1/1.9/[1.5]
Matrix Compiler2: 1.47 KB object code size  1.7/8.3/[1.8]


