Circuit: * C:\Program Files\LTC\LTspiceIV\prvi_etepen.asc

Direct Newton iteration for .op point succeeded.
N-Period=1
Fourier components of V(ulaz)
DC component:-1.65644e-005

Harmonic	Frequency	 Fourier 	Normalized	 Phase  	Normalized
 Number 	  [Hz]   	Component	 Component	[degree]	Phase [deg]
    1   	1.000e+03	1.182e+00	1.000e+00	    0.01°	    0.00°
    2   	2.000e+03	3.282e-05	2.778e-05	  -78.18°	  -78.19°
    3   	3.000e+03	6.280e-03	5.315e-03	 -172.44°	 -172.44°
    4   	4.000e+03	3.279e-05	2.775e-05	  -56.01°	  -56.02°
    5   	5.000e+03	4.292e-03	3.633e-03	   11.95°	   11.94°
    6   	6.000e+03	3.141e-05	2.659e-05	  -39.32°	  -39.33°
    7   	7.000e+03	2.310e-03	1.955e-03	 -162.03°	 -162.04°
    8   	8.000e+03	2.955e-05	2.501e-05	  -22.69°	  -22.70°
    9   	9.000e+03	9.840e-04	8.329e-04	   20.68°	   20.67°
Total Harmonic Distortion: 0.677970%(0.701506%)


N-Period=1
Fourier components of V(prvi_stepen)
DC component:182.199

Harmonic	Frequency	 Fourier 	Normalized	 Phase  	Normalized
 Number 	  [Hz]   	Component	 Component	[degree]	Phase [deg]
    1   	1.000e+03	1.171e+01	1.000e+00	  179.98°	    0.00°
    2   	2.000e+03	2.532e-01	2.162e-02	   89.24°	  -90.74°
    3   	3.000e+03	6.013e-02	5.134e-03	    7.76°	 -172.22°
    4   	4.000e+03	4.658e-03	3.977e-04	  -79.94°	 -259.92°
    5   	5.000e+03	4.245e-02	3.625e-03	 -167.91°	 -347.89°
    6   	6.000e+03	3.154e-03	2.693e-04	  111.20°	  -68.78°
    7   	7.000e+03	2.285e-02	1.951e-03	   17.66°	 -162.32°
    8   	8.000e+03	1.405e-03	1.199e-04	  -73.36°	 -253.34°
    9   	9.000e+03	9.728e-03	8.306e-04	 -158.76°	 -338.74°
Total Harmonic Distortion: 2.262231%(2.269483%)



Date: Sun Sep 24 14:55:36 2017
Total elapsed time: 1.767 seconds.

tnom = 27
temp = 27
method = modified trap
totiter = 248997
traniter = 248989
tranpoints = 120010
accept = 72079
rejected = 47931
matrix size = 10
fillins = 2
solver = Normal
Matrix Compiler1:      43 opcodes  1.7/[1.6]/2.5
Matrix Compiler2: 796 bytes object code size  1.6/1.5/[1.4]


