Circuit: * C:\Program Files\LTC\LTspiceIV\tube.asc

Direct Newton iteration for .op point succeeded.
.step x=1000
.step x=2000
.step x=3000
.step x=4000
.step x=5000
.step x=6000
.step x=7000
.step x=8000
.step x=9000
.step x=10000

Date: Wed Apr 27 09:54:14 2016
Total elapsed time: 0.149 seconds.

tnom = 27
temp = 27
method = trap
totiter = 25
traniter = 0
tranpoints = 0
accept = 0
rejected = 0
matrix size = 20
fillins = 8
solver = Normal
Matrix Compiler1:      99 opcodes
Matrix Compiler2: 1.74 KB object code size

