Circuit: * C:\Program Files\LTC\LTspiceIV\examples\Educational\1563.asc


Date: Sat Apr 22 21:46:31 2017
Total elapsed time: 0.046 seconds.

tnom = 27
temp = 27
method = trap
totiter = 0
traniter = 0
tranpoints = 0
accept = 0
rejected = 0
matrix size = 11
fillins = 9
solver = Normal

