Circuit: * C:\Program Files\LTC\LTspiceIV\examples\Educational\160.asc

Limiting rise time of source i6 to 5e-005
Limiting fall time of source i6 to 5e-005
WARNING: Less than two connections to node RC.  This node is used by A38.
Direct Newton iteration for .op point succeeded.

Date: Sat Apr 22 21:45:47 2017
Total elapsed time: 0.546 seconds.

tnom = 27
temp = 27
method = modified trap
totiter = 23455
traniter = 23449
tranpoints = 6663
accept = 5370
rejected = 1293
matrix size = 47
fillins = 0
solver = Normal
Thread vector: 8.2/5.4[2] 2.7/2.4[2] 2.2/2.1[1] 1.6/1.8[1]  2592/500
Matrix Compiler1: 648 bytes object code size  1.7/1.5/[1.4]
Matrix Compiler2: 1.79 KB object code size  1.7/2.2/[1.7]


