Circuit: * C:\Program Files\LTC\LTspiceIV\examples\Educational\Clapp.asc

.OP point found by inspection.

Date: Sat Apr 22 21:56:31 2017
Total elapsed time: 1.373 seconds.

tnom = 27
temp = 27
method = modified trap
totiter = 111596
traniter = 111596
tranpoints = 35632
accept = 25620
rejected = 10012
matrix size = 8
fillins = 0
solver = Normal
Matrix Compiler1: 460 bytes object code size  1.5/1.7/[1.4]
Matrix Compiler2: 608 bytes object code size  1.5/1.6/[1.5]


