Circuit: * C:\Program Files\LTC\LTspiceIV\examples\Educational\Cohn.asc


Date: Sat Apr 22 21:57:40 2017
Total elapsed time: 0.032 seconds.

tnom = 27
temp = 27
method = trap
totiter = 0
traniter = 0
tranpoints = 0
accept = 0
rejected = 0
matrix size = 9
fillins = 1
solver = Normal

