Circuit: * C:\Program Files\LTC\LTspiceIV\examples\Educational\Fc.asc

Direct Newton iteration for .op point succeeded.

Date: Sat Apr 22 22:02:53 2017
Total elapsed time: 2.355 seconds.

tnom = 27
temp = 27
method = modified trap
totiter = 172166
traniter = 172163
tranpoints = 86053
accept = 82480
rejected = 3573
matrix size = 13
fillins = 0
solver = Normal
Matrix Compiler1: 424 bytes object code size  1.6/1.5/[1.4]
Matrix Compiler2: 773 bytes object code size  1.5/1.5/[1.4]


