WARNING: unknown token in: "h()-a())/d0()[]"
Circuit: * C:\Program Files\LTC\LTspiceIV\examples\Educational\GFT.asc

WARNING: Less than two connections to node Y.  This node is used by EY.
.OP point found by inspection.
.step z=1
.step z=0
.step z=-1

Date: Sun Apr 23 15:36:39 2017
Total elapsed time: 0.125 seconds.

tnom = 27
temp = 27
method = trap
totiter = 0
traniter = 0
tranpoints = 0
accept = 0
rejected = 0
matrix size = 22
fillins = 36
solver = Normal

