Circuit: * C:\Program Files\LTC\LTspiceIV\examples\Educational\Linkwitz.asc

WARNING: Less than two connections to node N007.  This node is used by V2.
WARNING: Less than two connections to node N010.  This node is used by V3.
WARNING: Less than two connections to node N012.  This node is used by V4.
WARNING: Less than two connections to node N008.  This node is used by V5.
WARNING: Less than two connections to node N011.  This node is used by V6.
WARNING: Less than two connections to node N006.  This node is used by V7.
Direct Newton iteration for .op point succeeded.

Date: Sat Apr 22 22:04:21 2017
Total elapsed time: 0.032 seconds.

tnom = 27
temp = 27
method = trap
totiter = 3
traniter = 0
tranpoints = 0
accept = 0
rejected = 0
matrix size = 26
fillins = 3
solver = Normal
Matrix Compiler1:      57 opcodes
Matrix Compiler2: 1.50 KB object code size

