Circuit: * C:\Program Files\LTC\LTspiceIV\examples\Educational\LM741.asc

Direct Newton iteration failed to find .op point.  (Use ".option noopiter" to skip.)
Starting Gmin stepping
Gmin = 10
Gmin = 1.07374
Gmin = 0.115292
Gmin = 0.0123794
Gmin = 0.00132923
Gmin = 0.000142725
Gmin = 1.5325e-005
Gmin = 1.6455e-006
vernier = 0.5
Gmin = 3.06744e-007
vernier = 0.25
vernier = 0.125
vernier = 0.0625
Gmin = 3.14508e-007
vernier = 0.0833333
vernier = 0.111111
Gmin = 2.52041e-007
vernier = 0.148148
vernier = 0.197531
Gmin = 1.77858e-007
vernier = 0.263374
Gmin = 1.0161e-007
vernier = 0.351165
vernier = 0.46822
Gmin = 4.12807e-008
vernier = 0.624294
vernier = 0.832392
Gmin = 1.02685e-008
vernier = 1
Gmin = 1.30752e-009
Gmin = 1.40394e-010
Gmin = 1.50747e-011
Gmin = 1.61863e-012
Gmin = 1.73799e-013
Gmin = 0
Gmin stepping succeeded in finding the operating point.


Date: Sat Apr 22 21:58:40 2017
Total elapsed time: 0.328 seconds.

tnom = 27
temp = 27
method = modified trap
totiter = 3888
traniter = 2618
tranpoints = 1118
accept = 1078
rejected = 40
matrix size = 48
fillins = 43
solver = Normal
Thread vector: 33.0/11.3[2] 10.0/6.6[2] 4.9/6.0[1] 2.8/8.3[1]  2592/500
Matrix Compiler1: 7.39 KB object code size  4.7/4.1/[2.3]
Matrix Compiler2: 6.11 KB object code size  3.4/3.6/[3.5]


