Circuit: * C:\Program Files\LTC\LTspiceIV\examples\Educational\LoopGain.asc

Direct Newton iteration for .op point succeeded.

Date: Sat Apr 22 21:59:19 2017
Total elapsed time: 0.125 seconds.

tnom = 27
temp = 27
method = trap
totiter = 8
traniter = 0
tranpoints = 0
accept = 0
rejected = 0
matrix size = 20
fillins = 15
solver = Normal
Matrix Compiler1:      82 opcodes
Matrix Compiler2: 2.12 KB object code size

