Circuit: * C:\Program Files\LTC\LTspiceIV\examples\Educational\NoiseFigure.asc

Direct Newton iteration for .op point succeeded.

Date: Sat Apr 22 22:13:38 2017
Total elapsed time: 0.032 seconds.

tnom = 27
temp = 27
method = trap
totiter = 4
traniter = 0
tranpoints = 0
accept = 0
rejected = 0
matrix size = 12
fillins = 0
solver = Normal
Matrix Compiler1:      36 opcodes
Matrix Compiler2: 920 bytes object code size

