Circuit: * C:\Program Files\LTC\LTspiceIV\examples\Educational\NonLinearTransformer.asc

.OP point found by inspection.
.step r=1e+006
.step r=1

Date: Sat Apr 22 22:07:29 2017
Total elapsed time: 0.406 seconds.

tnom = 27
temp = 27
method = modified trap
totiter = 2116
traniter = 2116
tranpoints = 1047
accept = 1046
rejected = 1
matrix size = 6
fillins = 0
solver = Normal
Matrix Compiler1: 200 bytes object code size  1.8/1.6/[1.6]
Matrix Compiler2: 394 bytes object code size  1.6/1.8/[1.6]


