Circuit: * C:\Program Files\LTC\LTspiceIV\examples\Educational\TransmissionLineInverter.asc

.OP point found by inspection.

Date: Sat Apr 22 22:09:39 2017
Total elapsed time: 0.031 seconds.

tnom = 27
temp = 27
method = modified trap
totiter = 1056
traniter = 1056
tranpoints = 529
accept = 529
rejected = 0
matrix size = 10
fillins = 6
solver = Normal
Matrix Compiler1: 606 bytes object code size  2.3/1.9/[1.8]
Matrix Compiler2: 782 bytes object code size  1.8/1.9/[1.7]


