Circuit: * C:\Program Files\LTC\LTspiceIV\examples\Educational\Transformer2.asc

WARNING: Less than two connections to node A.  This node is used by L2.
WARNING: Less than two connections to node B.  This node is used by L3.
.OP point found by inspection.

Date: Sat Apr 22 22:09:22 2017
Total elapsed time: 0.202 seconds.

tnom = 27
temp = 27
method = modified trap
totiter = 3042
traniter = 3042
tranpoints = 1522
accept = 1391
rejected = 131
matrix size = 8
fillins = 2
solver = Normal
Matrix Compiler1: off  [1.7]/8.5/1.8
Matrix Compiler2: off  [1.5]/1.9/1.7


