Circuit: * C:\Program Files\LTC\LTspiceIV\examples\Educational\TwoTau.asc

Laplace(E1): Window=78.214129ms Nfft=1024
Laplace(E2): Window=78.194474ms Nfft=1024
Limiting rise time of source v1 to 0.0005
Limiting fall time of source v1 to 0.0005
WARNING: Less than two connections to node B.  This node is used by E2.
WARNING: Less than two connections to node C.  This node is used by E1.
Direct Newton iteration for .op point succeeded.

Date: Sat Apr 22 22:10:17 2017
Total elapsed time: 0.079 seconds.

tnom = 27
temp = 27
method = modified trap
totiter = 951
traniter = 948
tranpoints = 475
accept = 461
rejected = 14
matrix size = 8
fillins = 0
solver = Normal
Matrix Compiler1: 156 bytes object code size  1.4/1.4/[1.4]
Matrix Compiler2: 444 bytes object code size  1.3/1.4/[1.4]


