Circuit: * C:\Program Files\LTC\LTspiceIV\examples\Educational\varactor.asc

Direct Newton iteration for .op point succeeded.
.step vtune=0
.step vtune=5
.step vtune=20

Date: Sat Apr 22 22:11:00 2017
Total elapsed time: 0.140 seconds.

tnom = 27
temp = 27
method = trap
totiter = 13
traniter = 0
tranpoints = 0
accept = 0
rejected = 0
matrix size = 18
fillins = 1
solver = Normal
Matrix Compiler1:      48 opcodes
Matrix Compiler2: 1.27 KB object code size

