Circuit: * C:\Program Files\LTC\LTspiceIV\examples\Educational\FRA\Eg1.asc

Direct Newton iteration for .op point succeeded.
.step freq=0.1
.step freq=0.125992
.step freq=0.15874
.step freq=0.2
.step freq=0.251984
.step freq=0.31748
.step freq=0.4
.step freq=0.503968
.step freq=0.63496
.step freq=0.8
.step freq=1.00794
.step freq=1.26992
.step freq=1.6
.step freq=2.01587
.step freq=2.53984
.step freq=3.2
.step freq=4.03175
.step freq=5.07968
.step freq=6.4
.step freq=8.06349
.step freq=10.1594
.step freq=12.8
.step freq=16.127
.step freq=20.3187
.step freq=25.6
.step freq=32.254
.step freq=40.6375
.step freq=51.2
.step freq=64.508
.step freq=81.2749
.step freq=102.4
.step freq=129.016
.step freq=162.55
.step freq=204.8
.step freq=258.032
.step freq=325.1
.step freq=409.6
.step freq=516.064
.step freq=650.199
.step freq=819.2
.step freq=1032.13
.step freq=1300.4
.step freq=1638.4
.step freq=2064.25
.step freq=2600.8
.step freq=3276.8
.step freq=4128.51
.step freq=5201.6
.step freq=6553.6
.step freq=8257.02
.step freq=10403.2
.step freq=13107.2
.step freq=16514
.step freq=20806.4
.step freq=26214.4
.step freq=33028.1
.step freq=41612.8
.step freq=52428.8
.step freq=66056.1
.step freq=83225.5
.step freq=104858
.step freq=132112
.step freq=166451
.step freq=209715
.step freq=264225
.step freq=332902
.step freq=419430
.step freq=528449
.step freq=665804
.step freq=838861
.step freq=1.0569e+006
.step freq=1.33161e+006
.step freq=1.67772e+006
.step freq=2.1138e+006
.step freq=2.66322e+006
.step freq=3.35544e+006
.step freq=4.22759e+006
.step freq=5.32643e+006
.step freq=6.71089e+006
.step freq=8.45519e+006
.step freq=1e+007


Measurement: aavg
  step	AVG(v(a))	FROM	TO
     1	4.59826e-011	0	50
     2	4.99423e-011	0	39.685
     3	5.50376e-011	0	31.498
     4	4.61713e-011	0	25
     5	5.03335e-011	0	19.8425
     6	5.55797e-011	0	15.749
     7	4.65521e-011	0	12.5
     8	5.11178e-011	0	9.92126
     9	5.6662e-011	0	7.87451
    10	4.73285e-011	0	6.25
    11	5.26949e-011	0	4.96063
    12	5.88182e-011	0	3.93725
    13	4.89366e-011	0	3.125
    14	5.58792e-011	0	2.48031
    15	6.30933e-011	0	1.96863
    16	5.23654e-011	0	1.5625
    17	6.23512e-011	0	1.24016
    18	7.14703e-011	0	0.984313
    19	5.9969e-011	0	0.78125
    20	7.55531e-011	0	0.620079
    21	8.73395e-011	0	0.492157
    22	7.74276e-011	0	0.390625
    23	1.01888e-010	0	0.310039
    24	1.11422e-010	0	0.246078
    25	1.16053e-010	0	0.195313
    26	1.47042e-010	0	0.15502
    27	1.70857e-010	0	0.123039
    28	1.76656e-010	0	0.0976563
    29	2.38545e-010	0	0.0775098
    30	2.82483e-010	0	0.0615196
    31	3.55656e-010	0	0.0488281
    32	4.19942e-010	0	0.0387549
    33	5.30841e-010	0	0.0307598
    34	6.62717e-010	0	0.0244141
    35	8.12647e-010	0	0.0193775
    36	9.8653e-010	0	0.0153799
    37	1.34842e-009	0	0.012207
    38	1.48184e-009	0	0.00968873
    39	2.01763e-009	0	0.00768995
    40	2.27092e-009	0	0.00610352
    41	3.05513e-009	0	0.00484436
    42	3.85801e-009	0	0.00384497
    43	4.09087e-009	0	0.00305176
    44	4.92359e-009	0	0.00242218
    45	5.31485e-009	0	0.00192249
    46	5.17423e-009	0	0.00152588
    47	3.14512e-009	0	0.00121109
    48	-7.82143e-010	0	0.000961243
    49	-5.56689e-009	0	0.000762939
    50	-6.71169e-009	0	0.000605545
    51	2.02369e-009	0	0.000480622
    52	8.6674e-009	0	0.00038147
    53	-8.94733e-009	0	0.000302773
    54	6.5886e-009	0	0.000240311
    55	-1.13832e-008	0	0.000190735
    56	1.99236e-008	0	0.000151386
    57	2.4516e-008	0	0.000120155
    58	4.06201e-008	0	9.53674e-005
    59	-3.4932e-008	0	7.56932e-005
    60	7.98177e-008	0	6.00777e-005
    61	1.97078e-008	0	4.76837e-005
    62	2.31179e-007	0	3.78466e-005
    63	-1.24568e-007	0	3.00389e-005
    64	-1.00578e-008	0	2.38419e-005
    65	1.54845e-007	0	1.89233e-005
    66	3.05662e-007	0	1.50194e-005
    67	-2.53356e-007	0	1.19209e-005
    68	6.30028e-009	0	9.46165e-006
    69	1.07492e-006	0	7.50971e-006
    70	5.72528e-007	0	5.96046e-006
    71	3.08466e-006	0	4.73082e-006
    72	-2.96785e-006	0	3.75486e-006
    73	1.62864e-006	0	2.98023e-006
    74	-1.8584e-006	0	2.36541e-006
    75	-1.37436e-006	0	1.87743e-006
    76	-2.02202e-006	0	1.49012e-006
    77	7.55908e-007	0	1.18271e-006
    78	7.26408e-007	0	9.38714e-007
    79	1.15793e-006	0	7.45058e-007
    80	-3.15503e-006	0	5.91353e-007
    81	3.17687e-006	0	5e-007

Measurement: bavg
  step	AVG(v(b))	FROM	TO
     1	-9.41223e-016	0	50
     2	-1.09485e-015	0	39.685
     3	-1.23067e-015	0	31.498
     4	-1.30224e-015	0	25
     5	-1.57855e-015	0	19.8425
     6	-1.82412e-015	0	15.749
     7	-2.23316e-015	0	12.5
     8	-2.72168e-015	0	9.92126
     9	-3.09663e-015	0	7.87451
    10	-3.67617e-015	0	6.25
    11	-4.65329e-015	0	4.96063
    12	-5.4521e-015	0	3.93725
    13	-7.26426e-015	0	3.125
    14	-9.06305e-015	0	2.48031
    15	-1.03424e-014	0	1.96863
    16	-1.29987e-014	0	1.5625
    17	-1.66622e-014	0	1.24016
    18	-1.93085e-014	0	0.984313
    19	-2.57555e-014	0	0.78125
    20	-3.22334e-014	0	0.620079
    21	-3.58169e-014	0	0.492157
    22	-4.71551e-014	0	0.390625
    23	-5.81955e-014	0	0.310039
    24	-7.34763e-014	0	0.246078
    25	-8.28925e-014	0	0.195313
    26	-1.05505e-013	0	0.15502
    27	-1.22053e-013	0	0.123039
    28	-1.33716e-013	0	0.0976563
    29	-2.58422e-013	0	0.0775098
    30	-2.39809e-013	0	0.0615196
    31	-2.22822e-013	0	0.0488281
    32	-6.00441e-013	0	0.0387549
    33	-6.39658e-013	0	0.0307598
    34	-1.17456e-012	0	0.0244141
    35	-8.27766e-013	0	0.0193775
    36	-1.54938e-012	0	0.0153799
    37	-1.55507e-012	0	0.012207
    38	-2.15921e-012	0	0.00968873
    39	-2.41198e-012	0	0.00768995
    40	-3.0805e-012	0	0.00610352
    41	-4.04671e-012	0	0.00484436
    42	-4.93105e-012	0	0.00384497
    43	-5.36062e-012	0	0.00305176
    44	-5.25019e-012	0	0.00242218
    45	-3.27553e-012	0	0.00192249
    46	2.54414e-012	0	0.00152588
    47	1.41217e-011	0	0.00121109
    48	2.75924e-011	0	0.000961243
    49	3.21552e-011	0	0.000762939
    50	-7.71237e-012	0	0.000605545
    51	-7.86552e-011	0	0.000480622
    52	4.96521e-012	0	0.00038147
    53	1.36709e-010	0	0.000302773
    54	-2.48619e-010	0	0.000240311
    55	3.59436e-010	0	0.000190735
    56	1.34797e-010	0	0.000151386
    57	-7.9876e-010	0	0.000120155
    58	-5.28929e-010	0	9.53674e-005
    59	3.14796e-009	0	7.56932e-005
    60	1.50271e-009	0	6.00777e-005
    61	1.23397e-008	0	4.76837e-005
    62	-1.14177e-008	0	3.78466e-005
    63	3.50566e-008	0	3.00389e-005
    64	-6.05432e-008	0	2.38419e-005
    65	5.21491e-008	0	1.89233e-005
    66	-6.40991e-008	0	1.50194e-005
    67	-8.42928e-008	0	1.19209e-005
    68	2.21029e-007	0	9.46165e-006
    69	1.20366e-006	0	7.50971e-006
    70	7.22162e-007	0	5.96046e-006
    71	3.34691e-006	0	4.73082e-006
    72	-3.20091e-006	0	3.75486e-006
    73	1.87011e-006	0	2.98023e-006
    74	-2.02535e-006	0	2.36541e-006
    75	-1.53509e-006	0	1.87743e-006
    76	-1.95462e-006	0	1.49012e-006
    77	1.00578e-006	0	1.18271e-006
    78	9.33077e-007	0	9.38714e-007
    79	1.03297e-006	0	7.45058e-007
    80	-3.02276e-006	0	5.91353e-007
    81	3.06841e-006	0	5e-007

Measurement: are
  step	AVG((v(a)-aavg)*cos(360*time*freq))	FROM	TO
     1	3.13549e-007	0	50
     2	3.9504e-007	0	39.685
     3	4.97711e-007	0	31.498
     4	6.27053e-007	0	25
     5	7.9003e-007	0	19.8425
     6	9.95367e-007	0	15.749
     7	1.25406e-006	0	12.5
     8	1.58001e-006	0	9.92126
     9	1.99068e-006	0	7.87451
    10	2.50808e-006	0	6.25
    11	3.15997e-006	0	4.96063
    12	3.98131e-006	0	3.93725
    13	5.01611e-006	0	3.125
    14	6.31989e-006	0	2.48031
    15	7.96255e-006	0	1.96863
    16	1.00322e-005	0	1.5625
    17	1.26397e-005	0	1.24016
    18	1.5925e-005	0	0.984313
    19	2.00642e-005	0	0.78125
    20	2.52793e-005	0	0.620079
    21	3.18498e-005	0	0.492157
    22	4.01281e-005	0	0.390625
    23	5.05579e-005	0	0.310039
    24	6.36983e-005	0	0.246078
    25	8.02536e-005	0	0.195313
    26	0.000101111	0	0.15502
    27	0.000127386	0	0.123039
    28	0.000160486	0	0.0976563
    29	0.00020218	0	0.0775098
    30	0.00025469	0	0.0615196
    31	0.000320807	0	0.0488281
    32	0.000404028	0	0.0387549
    33	0.000508717	0	0.0307598
    34	0.00064029	0	0.0244141
    35	0.000805411	0	0.0193775
    36	0.00101215	0	0.0153799
    37	0.00127003	0	0.012207
    38	0.00158977	0	0.00968873
    39	0.00198235	0	0.00768995
    40	0.00245668	0	0.00610352
    41	0.0030144	0	0.00484436
    42	0.00363953	0	0.00384497
    43	0.00427888	0	0.00305176
    44	0.00480897	0	0.00242218
    45	0.00498906	0	0.00192249
    46	0.00442301	0	0.00152588
    47	0.00262156	0	0.00121109
    48	-0.000602813	0	0.000961243
    49	-0.00411951	0	0.000762939
    50	-0.0044636	0	0.000605545
    51	0.00119668	0	0.000480622
    52	0.00466417	0	0.00038147
    53	-0.00401415	0	0.000302773
    54	0.00232287	0	0.000240311
    55	-0.00334537	0	0.000190735
    56	0.0047763	0	0.000151386
    57	0.004108	0	0.000120155
    58	0.00495872	0	9.53674e-005
    59	-0.002772	0	7.56932e-005
    60	0.00464249	0	6.00777e-005
    61	0.00100873	0	4.76837e-005
    62	0.00455889	0	3.78466e-005
    63	-0.00325934	0	3.00389e-005
    64	-0.0019197	0	2.38419e-005
    65	0.0033305	0	1.89233e-005
    66	0.00464276	0	1.50194e-005
    67	-0.00321425	0	1.19209e-005
    68	-0.00428199	0	9.46165e-006
    69	0.000522613	0	7.50971e-006
    70	-0.00362119	0	5.96046e-006
    71	-0.0010387	0	4.73082e-006
    72	9.56522e-005	0	3.75486e-006
    73	-0.00139013	0	2.98023e-006
    74	0.0018302	0	2.36541e-006
    75	0.00111691	0	1.87743e-006
    76	0.00110665	0	1.49012e-006
    77	-0.00027423	0	1.18271e-006
    78	0.000400511	0	9.38714e-007
    79	-0.00051121	0	7.45058e-007
    80	0.000514322	0	5.91353e-007
    81	-0.00044477	0	5e-007

Measurement: aim
  step	AVG(-(v(a)-aavg)*sin(360*time*freq))	FROM	TO
     1	-0.00499837	0	50
     2	-0.00499837	0	39.685
     3	-0.00499837	0	31.498
     4	-0.00499837	0	25
     5	-0.00499837	0	19.8425
     6	-0.00499837	0	15.749
     7	-0.00499837	0	12.5
     8	-0.00499837	0	9.92126
     9	-0.00499837	0	7.87451
    10	-0.00499837	0	6.25
    11	-0.00499837	0	4.96063
    12	-0.00499837	0	3.93725
    13	-0.00499837	0	3.125
    14	-0.00499837	0	2.48031
    15	-0.00499837	0	1.96863
    16	-0.00499836	0	1.5625
    17	-0.00499836	0	1.24016
    18	-0.00499835	0	0.984313
    19	-0.00499833	0	0.78125
    20	-0.00499831	0	0.620079
    21	-0.00499827	0	0.492157
    22	-0.00499821	0	0.390625
    23	-0.00499812	0	0.310039
    24	-0.00499797	0	0.246078
    25	-0.00499773	0	0.195313
    26	-0.00499735	0	0.15502
    27	-0.00499675	0	0.123039
    28	-0.00499579	0	0.0976563
    29	-0.00499428	0	0.0775098
    30	-0.00499188	0	0.0615196
    31	-0.00498806	0	0.0488281
    32	-0.00498201	0	0.0387549
    33	-0.00497241	0	0.0307598
    34	-0.00495718	0	0.0244141
    35	-0.00493304	0	0.0193775
    36	-0.0048948	0	0.0153799
    37	-0.00483431	0	0.012207
    38	-0.00473878	0	0.00968873
    39	-0.00458842	0	0.00768995
    40	-0.00435292	0	0.00610352
    41	-0.00398704	0	0.00484436
    42	-0.00342589	0	0.00384497
    43	-0.00258338	0	0.00305176
    44	-0.00136241	0	0.00242218
    45	0.000301972	0	0.00192249
    46	0.00232773	0	0.00152588
    47	0.00425535	0	0.00121109
    48	0.00496146	0	0.000961243
    49	0.0028298	0	0.000762939
    50	-0.00224776	0	0.000605545
    51	-0.00485193	0	0.000480622
    52	0.00179298	0	0.00038147
    53	0.0029749	0	0.000302773
    54	-0.00442256	0	0.000240311
    55	0.00370817	0	0.000190735
    56	0.00145258	0	0.000151386
    57	-0.0028317	0	0.000120155
    58	-0.000511272	0	9.53674e-005
    59	0.00413505	0	7.56932e-005
    60	0.00176822	0	6.00777e-005
    61	0.00484779	0	4.76837e-005
    62	-0.00186857	0	3.78466e-005
    63	0.00364743	0	3.00389e-005
    64	-0.00444809	0	2.38419e-005
    65	0.00341938	0	1.89233e-005
    66	-0.000470281	0	1.50194e-005
    67	-0.003164	0	1.19209e-005
    68	-0.000284211	0	9.46165e-006
    69	0.00396669	0	7.50971e-006
    70	-0.000383864	0	5.96046e-006
    71	0.00305444	0	4.73082e-006
    72	-0.00278537	0	3.75486e-006
    73	0.00189899	0	2.98023e-006
    74	-0.000674717	0	2.36541e-006
    75	-0.00113746	0	1.87743e-006
    76	0.000663868	0	1.49012e-006
    77	0.00100001	0	1.18271e-006
    78	0.000726676	0	9.38714e-007
    79	-0.000420826	0	7.45058e-007
    80	0.000116065	0	5.91353e-007
    81	-3.91053e-005	0	5e-007

Measurement: bre
  step	AVG((v(b)-bavg)*cos(360*time*freq))	FROM	TO
     1	-5.56975e-010	0	50
     2	-7.01745e-010	0	39.685
     3	-8.84143e-010	0	31.498
     4	-1.11395e-009	0	25
     5	-1.40349e-009	0	19.8425
     6	-1.76829e-009	0	15.749
     7	-2.2279e-009	0	12.5
     8	-2.80698e-009	0	9.92126
     9	-3.53657e-009	0	7.87451
    10	-4.4558e-009	0	6.25
    11	-5.61395e-009	0	4.96063
    12	-7.07314e-009	0	3.93725
    13	-8.91159e-009	0	3.125
    14	-1.12279e-008	0	2.48031
    15	-1.41463e-008	0	1.96863
    16	-1.78232e-008	0	1.5625
    17	-2.24557e-008	0	1.24016
    18	-2.82924e-008	0	0.984313
    19	-3.56461e-008	0	0.78125
    20	-4.49111e-008	0	0.620079
    21	-5.6584e-008	0	0.492157
    22	-7.12905e-008	0	0.390625
    23	-8.98187e-008	0	0.310039
    24	-1.13161e-007	0	0.246078
    25	-1.42567e-007	0	0.195313
    26	-1.7961e-007	0	0.15502
    27	-2.26267e-007	0	0.123039
    28	-2.85024e-007	0	0.0976563
    29	-3.59e-007	0	0.0775098
    30	-4.52095e-007	0	0.0615196
    31	-5.6917e-007	0	0.0488281
    32	-7.16244e-007	0	0.0387549
    33	-9.00679e-007	0	0.0307598
    34	-1.13132e-006	0	0.0244141
    35	-1.41847e-006	0	0.0193775
    36	-1.77336e-006	0	0.0153799
    37	-2.2068e-006	0	0.012207
    38	-2.72569e-006	0	0.00968873
    39	-3.32566e-006	0	0.00768995
    40	-3.97599e-006	0	0.00610352
    41	-4.59035e-006	0	0.00484436
    42	-4.97367e-006	0	0.00384497
    43	-4.73446e-006	0	0.00305176
    44	-3.16759e-006	0	0.00242218
    45	8.14457e-007	0	0.00192249
    46	8.39758e-006	0	0.00152588
    47	1.94257e-005	0	0.00121109
    48	2.85856e-005	0	0.000961243
    49	2.05825e-005	0	0.000762939
    50	-2.05038e-005	0	0.000605545
    51	-5.59102e-005	0	0.000480622
    52	2.5974e-005	0	0.00038147
    53	5.44498e-005	0	0.000302773
    54	-0.000101931	0	0.000240311
    55	0.000107692	0	0.000190735
    56	5.30833e-005	0	0.000151386
    57	-0.000130555	0	0.000120155
    58	-2.9742e-005	0	9.53674e-005
    59	0.000302608	0	7.56932e-005
    60	0.000163001	0	6.00777e-005
    61	0.000563296	0	4.76837e-005
    62	-0.000273667	0	3.78466e-005
    63	0.000673176	0	3.00389e-005
    64	-0.00103435	0	2.38419e-005
    65	0.00100188	0	1.89233e-005
    66	-0.000173581	0	1.50194e-005
    67	-0.00147179	0	1.19209e-005
    68	-0.000166674	0	9.46165e-006
    69	0.00293051	0	7.50971e-006
    70	-0.00035719	0	5.96046e-006
    71	0.00358435	0	4.73082e-006
    72	-0.00411826	0	3.75486e-006
    73	0.00353588	0	2.98023e-006
    74	-0.00158231	0	2.36541e-006
    75	-0.00336088	0	1.87743e-006
    76	0.00247399	0	1.49012e-006
    77	0.00469132	0	1.18271e-006
    78	0.00430014	0	9.38714e-007
    79	-0.00314041	0	7.45058e-007
    80	0.00109754	0	5.91353e-007
    81	-0.000444773	0	5e-007

Measurement: bim
  step	AVG(-(v(b)-bavg)*sin(360*time*freq))	FROM	TO
     1	5.53514e-008	0	50
     2	5.53514e-008	0	39.685
     3	5.53514e-008	0	31.498
     4	5.53513e-008	0	25
     5	5.53512e-008	0	19.8425
     6	5.53511e-008	0	15.749
     7	5.53509e-008	0	12.5
     8	5.53506e-008	0	9.92126
     9	5.53501e-008	0	7.87451
    10	5.53492e-008	0	6.25
    11	5.53479e-008	0	4.96063
    12	5.53458e-008	0	3.93725
    13	5.53425e-008	0	3.125
    14	5.53373e-008	0	2.48031
    15	5.5329e-008	0	1.96863
    16	5.53158e-008	0	1.5625
    17	5.52949e-008	0	1.24016
    18	5.52616e-008	0	0.984313
    19	5.52088e-008	0	0.78125
    20	5.5125e-008	0	0.620079
    21	5.4992e-008	0	0.492157
    22	5.47809e-008	0	0.390625
    23	5.44457e-008	0	0.310039
    24	5.39137e-008	0	0.246078
    25	5.30692e-008	0	0.195313
    26	5.17288e-008	0	0.15502
    27	4.9601e-008	0	0.123039
    28	4.62238e-008	0	0.0976563
    29	4.08636e-008	0	0.0775098
    30	3.23572e-008	0	0.0615196
    31	1.88596e-008	0	0.0488281
    32	-2.55232e-009	0	0.0387549
    33	-3.65062e-008	0	0.0307598
    34	-9.03151e-008	0	0.0244141
    35	-1.75507e-007	0	0.0193775
    36	-3.10173e-007	0	0.0153799
    37	-5.22521e-007	0	0.012207
    38	-8.5603e-007	0	0.00968873
    39	-1.3765e-006	0	0.00768995
    40	-2.18038e-006	0	0.00610352
    41	-3.40114e-006	0	0.00484436
    42	-5.20306e-006	0	0.00384497
    43	-7.73463e-006	0	0.00305176
    44	-1.09777e-005	0	0.00242218
    45	-1.43721e-005	0	0.00192249
    46	-1.60753e-005	0	0.00152588
    47	-1.20324e-005	0	0.00121109
    48	3.4174e-006	0	0.000961243
    49	2.98656e-005	0	0.000762939
    50	4.0839e-005	0	0.000605545
    51	-1.37328e-005	0	0.000480622
    52	-6.77207e-005	0	0.00038147
    53	7.33786e-005	0	0.000302773
    54	-5.34753e-005	0	0.000240311
    55	9.70822e-005	0	0.000190735
    56	-0.000174728	0	0.000151386
    57	-0.000189303	0	0.000120155
    58	-0.000287958	0	9.53674e-005
    59	0.000202796	0	7.56932e-005
    60	-0.000428074	0	6.00777e-005
    61	-0.000117244	0	4.76837e-005
    62	-0.000667547	0	3.78466e-005
    63	0.000601444	0	3.00389e-005
    64	0.000446355	0	2.38419e-005
    65	-0.000975675	0	1.89233e-005
    66	-0.00171369	0	1.50194e-005
    67	0.00149479	0	1.19209e-005
    68	0.00250934	0	9.46165e-006
    69	-0.000385408	0	7.50971e-006
    70	0.00336926	0	5.96046e-006
    71	0.00121869	0	4.73082e-006
    72	-0.000142789	0	3.75486e-006
    73	0.00258928	0	2.98023e-006
    74	-0.00429367	0	2.36541e-006
    75	-0.00330326	0	1.87743e-006
    76	-0.0041185	0	1.49012e-006
    77	0.00129209	0	1.18271e-006
    78	-0.00236109	0	9.38714e-007
    79	0.00380126	0	7.45058e-007
    80	-0.0048235	0	5.91353e-007
    81	0.00493479	0	5e-007

Measurement: gainmag
  step	20*log10(hypot(are,aim) / hypot(bre,bim))
     1	99.1136
     2	99.1133
     3	99.1129
     4	99.1123
     5	99.1112
     6	99.1096
     7	99.107
     8	99.103
     9	99.0965
    10	99.0863
    11	99.0701
    12	99.0445
    13	99.0042
    14	98.941
    15	98.8425
    16	98.6906
    17	98.4599
    18	98.1171
    19	97.6231
    20	96.9387
    21	96.0346
    22	94.9007
    23	93.5501
    24	92.0142
    25	90.3326
    26	88.5439
    27	86.6803
    28	84.7662
    29	82.8188
    30	80.8498
    31	78.867
    32	76.8753
    33	74.878
    34	72.8772
    35	70.8742
    36	68.8697
    37	66.8644
    38	64.8585
    39	62.8522
    40	60.8457
    41	58.8391
    42	56.8324
    43	54.8256
    44	52.8188
    45	50.8119
    46	48.8051
    47	46.7982
    48	44.7913
    49	42.7844
    50	40.7775
    51	38.7705
    52	36.7636
    53	34.7566
    54	32.7495
    55	30.7425
    56	28.7353
    57	26.728
    58	24.7206
    59	22.7129
    60	20.7049
    61	18.696
    62	16.6873
    63	14.6778
    64	12.6703
    65	10.6633
    66	8.6569
    67	6.64891
    68	4.64168
    69	2.62996
    70	0.626339
    71	-1.38943
    72	-3.39672
    73	-5.40054
    74	-7.40623
    75	-9.41434
    76	-11.4177
    77	-13.4285
    78	-15.4352
    79	-17.4392
    80	-19.4461
    81	-20.9044

Measurement: gainphi
  step	mod(atan2(aim, are) - atan2(bim, bre)+180,360)-180
     1	179.427
     2	179.278
     3	179.091
     4	178.854
     5	178.557
     6	178.182
     7	177.709
     8	177.115
     9	176.367
    10	175.426
    11	174.245
    12	172.763
    13	170.91
    14	168.603
    15	165.749
    16	162.256
    17	158.042
    18	153.071
    19	147.381
    20	141.12
    21	134.548
    22	127.999
    23	121.803
    24	116.205
    25	111.337
    26	107.226
    27	103.825
    28	101.052
    29	98.812
    30	97.0145
    31	95.5777
    32	94.4322
    33	93.5205
    34	92.7955
    35	92.2194
    36	91.7619
    37	91.3986
    38	91.1102
    39	90.8812
    40	90.6994
    41	90.5552
    42	90.4406
    43	90.3497
    44	90.2776
    45	90.2203
    46	90.1748
    47	90.1387
    48	90.1101
    49	90.0874
    50	90.0692
    51	90.0549
    52	90.0435
    53	90.0346
    54	90.0273
    55	90.0216
    56	90.0167
    57	90.0134
    58	90.0102
    59	90.0082
    60	90.005
    61	90.0033
    62	90.0042
    63	90.005
    64	89.9977
    65	89.9951
    66	89.9999
    67	89.9929
    68	89.9973
    69	89.9868
    70	89.9995
    71	90.003
    72	89.981
    73	89.9905
    74	89.9931
    75	89.973
    76	89.9658
    77	89.9364
    78	89.9083
    79	89.8992
    80	89.8978
    81	89.8745


Date: Sat Apr 22 21:48:38 2017
Total elapsed time: 5.054 seconds.

tnom = 27
temp = 27
method = modified trap
totiter = 80525
traniter = 80522
tranpoints = 40262
accept = 24265
rejected = 15997
matrix size = 9
fillins = 4
solver = Normal
Matrix Compiler1: 498 bytes object code size  1.6/1.4/[1.4]
Matrix Compiler2: 771 bytes object code size  1.5/1.6/[1.4]


