Circuit: * C:\Program Files\LTC\LTspiceIV\examples\Educational\FRA\Eg2.asc

C8: Increased Cpar to 5e-011
C5: Increased Cpar to 2.2e-011
Direct Newton iteration for .op point succeeded.
.step freq=50000
.step freq=57434.9
.step freq=65975.4
.step freq=75785.8
.step freq=87055.1
.step freq=100000
.step freq=114870
.step freq=131951
.step freq=151572
.step freq=174110
.step freq=200000


Measurement: aavg
  step	AVG(v(a))	FROM	TO
     1	0.599801	0	0.0005
     2	0.5998	0	0.000435275
     3	0.5998	0	0.000378929
     4	0.5998	0	0.000329877
     5	0.599798	0	0.000287175
     6	0.599797	0	0.00025
     7	0.599799	0	0.000217638
     8	0.599799	0	0.000189465
     9	0.599796	0	0.000164938
    10	0.599796	0	0.000143587
    11	0.599804	0	0.000125

Measurement: bavg
  step	AVG(v(b))	FROM	TO
     1	0.599801	0	0.0005
     2	0.5998	0	0.000435275
     3	0.5998	0	0.000378929
     4	0.5998	0	0.000329877
     5	0.599798	0	0.000287175
     6	0.599797	0	0.00025
     7	0.599798	0	0.000217638
     8	0.599798	0	0.000189465
     9	0.599795	0	0.000164938
    10	0.599794	0	0.000143587
    11	0.599801	0	0.000125

Measurement: are
  step	AVG((v(a)-aavg)*cos(360*time*freq))	FROM	TO
     1	-0.000194385	0	0.0005
     2	0.000230603	0	0.000435275
     3	0.000256145	0	0.000378929
     4	0.000154812	0	0.000329877
     5	0.000346528	0	0.000287175
     6	-0.00022614	0	0.00025
     7	-0.000277606	0	0.000217638
     8	0.00034333	0	0.000189465
     9	0.000300884	0	0.000164938
    10	-0.000281135	0	0.000143587
    11	-0.000281073	0	0.000125

Measurement: aim
  step	AVG(-(v(a)-aavg)*sin(360*time*freq))	FROM	TO
     1	-0.000387671	0	0.0005
     2	0.000348241	0	0.000435275
     3	-0.000312015	0	0.000378929
     4	-0.000355743	0	0.000329877
     5	0.000142951	0	0.000287175
     6	-0.000286256	0	0.00025
     7	-0.000221434	0	0.000217638
     8	3.16397e-005	0	0.000189465
     9	-0.000145066	0	0.000164938
    10	0.000157217	0	0.000143587
    11	-0.000144215	0	0.000125

Measurement: bre
  step	AVG((v(b)-bavg)*cos(360*time*freq))	FROM	TO
     1	-0.000194387	0	0.0005
     2	0.000189783	0	0.000435275
     3	-0.000214053	0	0.000378929
     4	-0.000262117	0	0.000329877
     5	8.16255e-005	0	0.000287175
     6	-0.000226093	0	0.00025
     7	-0.000196	0	0.000217638
     8	2.57636e-005	0	0.000189465
     9	-0.000157085	0	0.000164938
    10	0.000166347	0	0.000143587
    11	-0.000280871	0	0.000125

Measurement: bim
  step	AVG(-(v(b)-bavg)*sin(360*time*freq))	FROM	TO
     1	0.000112136	0	0.0005
     2	-0.000149834	0	0.000435275
     3	-0.000143003	0	0.000378929
     4	-8.06187e-005	0	0.000329877
     5	-0.000280352	0	0.000287175
     6	0.000212883	0	0.00025
     7	0.000270457	0	0.000217638
     8	-0.000352625	0	0.000189465
     9	-0.000340546	0	0.000164938
    10	0.000374397	0	0.000143587
    11	0.000352668	0	0.000125

Measurement: gainmag
  step	20*log10(hypot(are,aim) / hypot(bre,bim))
     1	5.72239
     2	4.74754
     3	3.90786
     4	3.01349
     5	2.16981
     6	1.39876
     7	0.531889
     8	-0.218425
     9	-1.00562
    10	-2.08901
    11	-3.08928

Measurement: gainphi
  step	mod(atan2(aim, are) - atan2(bim, bre)+180,360)-180
     1	93.3493
     2	94.7789
     3	95.6381
     4	96.4214
     5	96.1842
     6	94.9678
     7	92.6469
     8	91.0865
     9	89.0225
    10	84.741
    11	78.6273


Date: Sat Apr 22 21:50:10 2017
Total elapsed time: 72.930 seconds.

tnom = 27
temp = 27
method = modified trap
totiter = 217281
traniter = 217253
tranpoints = 64052
accept = 48013
rejected = 16039
matrix size = 40
fillins = 1
solver = Normal
Thread vector: 15.3/11.6[2] 9.8/6.8[2] 3.1/2.8[2] 1.7/1.8[1]  2592/500
Matrix Compiler1: 1.33 KB object code size  2.2/1.9/[1.6]
Matrix Compiler2: off  [2.0]/2.4/2.6


