Stray ".ends" card: .ends
Circuit: * C:\Program Files\LTC\LTspiceIV\lib\t_curves.asc

.step v3=0
.step v3=-1
.step v3=-2
.step v3=-3
.step v3=-4
.step v3=-5
.step v3=-6
.step v3=-7
.step v3=-8
.step v3=-9
.step v3=-10

Date: Wed Apr 12 00:10:32 2017
Total elapsed time: 0.298 seconds.

tnom = 27
temp = 27
method = trap
totiter = 7536
traniter = 0
tranpoints = 0
accept = 0
rejected = 0
matrix size = 57
fillins = 6
solver = Normal
Thread vector: 50.1/28.9[2] 0.0/0.0[0] 13.6/9.1[2] 2.6/3.8[1]  2592/500
Matrix Compiler1: 1.78 KB object code size  4.4/3.1/[2.2]
Matrix Compiler2: 3.37 KB object code size  3.6/4.6/[2.5]


