Circuit: * C:\Program Files\LTC\LTspiceIV\examples\Educational\PAsystem\PowerAmp.asc

Direct Newton iteration for .op point succeeded.
.step a=0.1
N-Period=1
Fourier components of I(speaker)
DC component:-0.0027895

Harmonic	Frequency	 Fourier 	Normalized	 Phase  	Normalized
 Number 	  [Hz]   	Component	 Component	[degree]	Phase [deg]
    1   	1.000e+03	2.227e-01	1.000e+00	    1.93°	    0.00°
    2   	2.000e+03	1.301e-04	5.842e-04	 -158.85°	 -160.78°
    3   	3.000e+03	2.608e-05	1.171e-04	   83.09°	   81.17°
    4   	4.000e+03	6.424e-05	2.884e-04	 -179.62°	 -181.54°
    5   	5.000e+03	5.078e-05	2.280e-04	 -179.04°	 -180.97°
    6   	6.000e+03	4.276e-05	1.920e-04	 -179.75°	 -181.68°
    7   	7.000e+03	3.702e-05	1.662e-04	 -179.30°	 -181.23°
    8   	8.000e+03	3.202e-05	1.437e-04	 -179.67°	 -181.59°
    9   	9.000e+03	2.845e-05	1.277e-04	 -179.78°	 -181.71°
Total Harmonic Distortion: 0.076913%(0.085415%)


.step a=0.2
N-Period=1
Fourier components of I(speaker)
DC component:-0.00553251

Harmonic	Frequency	 Fourier 	Normalized	 Phase  	Normalized
 Number 	  [Hz]   	Component	 Component	[degree]	Phase [deg]
    1   	1.000e+03	4.445e-01	1.000e+00	    1.91°	    0.00°
    2   	2.000e+03	2.838e-04	6.385e-04	 -143.41°	 -145.32°
    3   	3.000e+03	2.187e-04	4.920e-04	   39.40°	   37.49°
    4   	4.000e+03	1.251e-04	2.814e-04	 -174.50°	 -176.42°
    5   	5.000e+03	3.809e-05	8.569e-05	  114.23°	  112.32°
    6   	6.000e+03	8.456e-05	1.902e-04	 -177.88°	 -179.79°
    7   	7.000e+03	6.095e-05	1.371e-04	  177.97°	  176.06°
    8   	8.000e+03	6.483e-05	1.458e-04	  179.50°	  177.58°
    9   	9.000e+03	6.124e-05	1.378e-04	 -175.16°	 -177.07°
Total Harmonic Distortion: 0.091192%(0.098802%)

.step a=0.3
N-Period=1
Fourier components of I(speaker)
DC component:-0.00823635

Harmonic	Frequency	 Fourier 	Normalized	 Phase  	Normalized
 Number 	  [Hz]   	Component	 Component	[degree]	Phase [deg]
    1   	1.000e+03	6.658e-01	1.000e+00	    1.90°	    0.00°
    2   	2.000e+03	4.914e-04	7.380e-04	 -130.35°	 -132.25°
    3   	3.000e+03	4.138e-04	6.214e-04	   43.04°	   41.14°
    4   	4.000e+03	1.885e-04	2.830e-04	 -177.61°	 -179.51°
    5   	5.000e+03	8.188e-05	1.230e-04	  105.64°	  103.74°
    6   	6.000e+03	1.218e-04	1.830e-04	 -173.91°	 -175.80°
    7   	7.000e+03	5.586e-05	8.390e-05	  124.52°	  122.62°
    8   	8.000e+03	9.294e-05	1.396e-04	 -176.49°	 -178.39°
    9   	9.000e+03	6.043e-05	9.076e-05	  166.93°	  165.03°
Total Harmonic Distortion: 0.104608%(0.111026%)

.step a=0.4
N-Period=1
Fourier components of I(speaker)
DC component:-0.0108745

Harmonic	Frequency	 Fourier 	Normalized	 Phase  	Normalized
 Number 	  [Hz]   	Component	 Component	[degree]	Phase [deg]
    1   	1.000e+03	8.861e-01	1.000e+00	    1.88°	    0.00°
    2   	2.000e+03	8.317e-04	9.385e-04	 -116.91°	 -118.79°
    3   	3.000e+03	1.031e-03	1.163e-03	   33.31°	   31.42°
    4   	4.000e+03	2.640e-04	2.979e-04	  174.59°	  172.71°
    5   	5.000e+03	1.733e-04	1.956e-04	  156.35°	  154.47°
    6   	6.000e+03	1.600e-04	1.806e-04	 -173.99°	 -175.88°
    7   	7.000e+03	9.223e-05	1.041e-04	  116.84°	  114.96°
    8   	8.000e+03	1.197e-04	1.351e-04	 -174.55°	 -176.44°
    9   	9.000e+03	7.090e-05	8.001e-05	  135.41°	  133.52°
Total Harmonic Distortion: 0.155868%(0.160303%)

.step a=0.5
N-Period=1
Fourier components of I(speaker)
DC component:-0.0134043

Harmonic	Frequency	 Fourier 	Normalized	 Phase  	Normalized
 Number 	  [Hz]   	Component	 Component	[degree]	Phase [deg]
    1   	1.000e+03	1.104e+00	1.000e+00	    1.86°	    0.00°
    2   	2.000e+03	1.433e-03	1.298e-03	 -105.30°	 -107.16°
    3   	3.000e+03	2.545e-03	2.304e-03	   26.40°	   24.54°
    4   	4.000e+03	3.764e-04	3.408e-04	  162.64°	  160.78°
    5   	5.000e+03	4.127e-04	3.737e-04	 -178.81°	 -180.68°
    6   	6.000e+03	1.962e-04	1.776e-04	 -173.78°	 -175.65°
    7   	7.000e+03	1.341e-04	1.214e-04	  129.26°	  127.39°
    8   	8.000e+03	1.476e-04	1.337e-04	 -174.25°	 -176.11°
    9   	9.000e+03	9.960e-05	9.018e-05	  129.31°	  127.45°
Total Harmonic Distortion: 0.270558%(0.273112%)

.step a=0.6
N-Period=1
Fourier components of I(speaker)
DC component:-0.0160694

Harmonic	Frequency	 Fourier 	Normalized	 Phase  	Normalized
 Number 	  [Hz]   	Component	 Component	[degree]	Phase [deg]
    1   	1.000e+03	1.319e+00	1.000e+00	    1.83°	    0.00°
    2   	2.000e+03	1.752e-03	1.329e-03	 -103.41°	 -105.24°
    3   	3.000e+03	6.425e-03	4.872e-03	   21.84°	   20.00°
    4   	4.000e+03	4.771e-04	3.619e-04	 -128.47°	 -130.30°
    5   	5.000e+03	1.654e-03	1.254e-03	 -162.27°	 -164.10°
    6   	6.000e+03	7.061e-04	5.355e-04	  134.10°	  132.27°
    7   	7.000e+03	6.064e-04	4.599e-04	   47.79°	   45.96°
    8   	8.000e+03	4.097e-04	3.107e-04	  -75.13°	  -76.96°
    9   	9.000e+03	5.092e-04	3.862e-04	 -154.43°	 -156.26°
Total Harmonic Distortion: 0.528691%(0.531968%)

.step a=0.7
N-Period=1
Fourier components of I(speaker)
DC component:-0.0172091

Harmonic	Frequency	 Fourier 	Normalized	 Phase  	Normalized
 Number 	  [Hz]   	Component	 Component	[degree]	Phase [deg]
    1   	1.000e+03	1.489e+00	1.000e+00	    1.73°	    0.00°
    2   	2.000e+03	1.041e-02	6.994e-03	  -92.03°	  -93.76°
    3   	3.000e+03	4.468e-02	3.002e-02	   11.36°	    9.63°
    4   	4.000e+03	5.698e-03	3.828e-03	   92.60°	   90.87°
    5   	5.000e+03	2.476e-02	1.663e-02	 -167.95°	 -169.67°
    6   	6.000e+03	3.349e-03	2.250e-03	  -97.81°	  -99.54°
    7   	7.000e+03	1.181e-02	7.934e-03	   11.53°	    9.80°
    8   	8.000e+03	1.117e-03	7.504e-04	  106.51°	  104.79°
    9   	9.000e+03	4.338e-03	2.914e-03	  173.94°	  172.21°
Total Harmonic Distortion: 3.630660%(3.639211%)


Date: Wed May 10 21:59:41 2017
Total elapsed time: 1.402 seconds.

tnom = 27
temp = 27
method = modified trap
totiter = 2995
traniter = 2983
tranpoints = 1339
accept = 1187
rejected = 152
matrix size = 83
fillins = 99
solver = Normal
Matrix Compiler1: 13.61 KB object code size  8.6/7.0/[3.7]
Matrix Compiler2: 9.69 KB object code size  3.7/4.3/[2.9]


