Circuit: * C:\Program Files\LTC\LTspiceIV\examples\jigs\1052.asc

Direct Newton iteration failed to find .op point.  (Use ".option noopiter" to skip.)
Starting Gmin stepping
Gmin = 10
Gmin = 1.07374
Gmin = 0.115292
Gmin = 0.0123794
Gmin = 0.00132923
Gmin = 0.000142725
Gmin = 1.5325e-005
Gmin = 1.6455e-006
Gmin = 1.76685e-007
Gmin = 1.89714e-008
Gmin = 2.03704e-009
Gmin = 2.18725e-010
Gmin = 2.34854e-011
Gmin = 2.52173e-012
Gmin = 2.70769e-013
Gmin = 0
Gmin stepping succeeded in finding the operating point.


Date: Sun Apr 23 15:37:22 2017
Total elapsed time: 2.543 seconds.

tnom = 27
temp = 27
method = modified trap
totiter = 57148
traniter = 56664
tranpoints = 25176
accept = 17744
rejected = 7432
matrix size = 43
fillins = 55
solver = Normal
Matrix Compiler1: 5.92 KB object code size  4.2/3.9/[2.2]
Matrix Compiler2: 5.05 KB object code size  2.9/3.7/[2.4]


