Circuit: * C:\Program Files\LTC\LTspiceIV\examples\jigs\1068-25.asc

Early termination of direct N-R iteration.
Direct Newton iteration failed to find .op point.  (Use ".option noopiter" to skip.)
Starting Gmin stepping
Gmin = 10
Gmin = 1.07374
vernier = 0.5
vernier = 0.25
vernier = 0.125
vernier = 0.0625
vernier = 0.03125
Gmin = 1.0412
vernier = 0.015625
vernier = 0.0078125
Gmin = 1.0132
vernier = 0.00390625
vernier = 0.00195313
Gmin = 1.00827
vernier = 0.00260417
vernier = 0.00130208
Gmin = 1.00515
vernier = 0.000651042
vernier = 0.000868055
vernier = 0.000434028
Gmin = 1.00434
vernier = 0.000578703
vernier = 0.000434027
Gmin = 1.00339
Gmin = 0
Gmin stepping failed

Starting source stepping with srcstepmethod=0
Source Step = 3.0303%
Source Step = 33.3333%
Source Step = 63.6364%
Source Step = 93.9394%
Source stepping succeeded in finding the operating point.


Date: Wed May 10 21:48:43 2017
Total elapsed time: 2.118 seconds.

tnom = 27
temp = 27
method = trap
totiter = 4772
traniter = 0
tranpoints = 0
accept = 0
rejected = 0
matrix size = 71
fillins = 365
solver = Normal
Matrix Compiler1:    1301 opcodes
Matrix Compiler2: 14.79 KB object code size  6.2/4.5/[3.5]


