Circuit: * C:\Program Files\LTC\LTspiceIV\examples\jigs\27C.asc

Direct Newton iteration for .op point succeeded.

Date: Wed May 10 21:51:45 2017
Total elapsed time: 0.296 seconds.

tnom = 27
temp = 27
method = modified trap
totiter = 3246
traniter = 3224
tranpoints = 1613
accept = 1504
rejected = 109
matrix size = 14
fillins = 8
solver = Normal
Matrix Compiler1: 740 bytes object code size  2.6/1.7/[1.5]
Matrix Compiler2: 1.37 KB object code size  1.8/2.0/[1.9]


