Circuit: * C:\Program Files\LTC\LTspiceIV\examples\jigs\3062.asc

Direct Newton iteration failed to find .op point.  (Use ".option noopiter" to skip.)
Starting Gmin stepping
Gmin = 10
Gmin = 1.07374
Gmin = 0.115292
Gmin = 0.0123794
Gmin = 0.00132923
Gmin = 0.000142725
Gmin = 1.5325e-005
Gmin = 1.6455e-006
Gmin = 1.76685e-007
Gmin = 1.89714e-008
Gmin = 2.03704e-009
Gmin = 2.18725e-010
Gmin = 2.34854e-011
Gmin = 2.52173e-012
Gmin = 2.70769e-013
Gmin = 0
Gmin stepping succeeded in finding the operating point.

Ignoring empty pin current: Ix(u1:4)
Ignoring empty pin current: Ix(u1:6)
Ignoring empty pin current: Ix(u1:4)
Ignoring empty pin current: Ix(u1:6)

Date: Wed May 10 21:51:29 2017
Total elapsed time: 0.081 seconds.

tnom = 27
temp = 27
method = modified trap
totiter = 2969
traniter = 2608
tranpoints = 1180
accept = 1143
rejected = 37
matrix size = 18
fillins = 7
solver = Normal
Matrix Compiler1: 1.21 KB object code size  2.2/1.8/[1.5]
Matrix Compiler2: off  [1.9]/2.0/2.0


