Circuit: * C:\Program Files\LTC\LTspiceIV\examples\jigs\8610AC.asc

Direct Newton iteration for .op point succeeded.
Ignoring empty pin current: Ix(u1:6)
Ignoring empty pin current: Ix(u1:8)
Ignoring empty pin current: Ix(u1:10)
Ignoring empty pin current: Ix(u1:11)
Ignoring empty pin current: Ix(u1:6)
Ignoring empty pin current: Ix(u1:8)
Ignoring empty pin current: Ix(u1:10)
Ignoring empty pin current: Ix(u1:11)

Date: Sun Apr 23 15:41:57 2017
Total elapsed time: 10.795 seconds.

tnom = 27
temp = 27
method = modified trap
totiter = 332273
traniter = 332268
tranpoints = 89377
accept = 68101
rejected = 21276
matrix size = 71
fillins = 7
solver = Normal
Thread vector: 44.4/31.7[2] 13.1/9.0[2] 8.9/6.2[2] 2.8/6.1[1]  2592/500
Matrix Compiler1: 2.26 KB object code size  4.5/3.8/[2.9]
Matrix Compiler2: 4.02 KB object code size  3.8/5.1/[2.9]


