Circuit: * C:\Program Files\LTC\LTspiceIV\examples\jigs\8697.asc

Direct Newton iteration for .op point succeeded.
Ignoring empty pin current: Ix(u1:1)
Ignoring empty pin current: Ix(u1:6)
Ignoring empty pin current: Ix(u1:8)
Ignoring empty pin current: Ix(u1:9)
Ignoring empty pin current: Ix(u1:10)
Ignoring empty pin current: Ix(u1:11)
Ignoring empty pin current: Ix(u1:12)
Ignoring empty pin current: Ix(u1:14)
Ignoring empty pin current: Ix(u1:15)
Ignoring empty pin current: Ix(u1:1)
Ignoring empty pin current: Ix(u1:6)
Ignoring empty pin current: Ix(u1:8)
Ignoring empty pin current: Ix(u1:9)
Ignoring empty pin current: Ix(u1:10)
Ignoring empty pin current: Ix(u1:11)
Ignoring empty pin current: Ix(u1:12)
Ignoring empty pin current: Ix(u1:14)
Ignoring empty pin current: Ix(u1:15)

Date: Sun Apr 23 15:40:19 2017
Total elapsed time: 125.970 seconds.

tnom = 27
temp = 27
method = modified trap
totiter = 3421287
traniter = 3421262
tranpoints = 898859
accept = 682438
rejected = 216421
matrix size = 71
fillins = 21
solver = Normal
Thread vector: 46.0/20.3[2] 15.2/9.8[2] 5.6/4.1[2] 3.0/2.1[2]  2592/500
Matrix Compiler1: 3.23 KB object code size  3.3/3.0/[2.0]
Matrix Compiler2: off  [2.5]/3.5/3.9


